data_image0
_chemical_formula_structural       C5H4O2
_chemical_formula_sum              "C5 H4 O2"
_cell_length_a       15
_cell_length_b       15.5
_cell_length_c       16
_cell_angle_alpha    90
_cell_angle_beta     90
_cell_angle_gamma    90

_space_group_name_H-M_alt    "P 1"
_space_group_IT_number       1

loop_
  _space_group_symop_operation_xyz
  'x, y, z'

loop_
  _atom_site_type_symbol
  _atom_site_label
  _atom_site_symmetry_multiplicity
  _atom_site_fract_x
  _atom_site_fract_y
  _atom_site_fract_z
  _atom_site_occupancy
  C   C1        1.0  0.48578  0.54177  0.49131  1.0000
  C   C2        1.0  0.47942  0.46132  0.45411  1.0000
  C   C3        1.0  0.47375  0.47562  0.36620  1.0000
  C   C4        1.0  0.47699  0.56386  0.35504  1.0000
  C   C5        1.0  0.49332  0.57101  0.57778  1.0000
  H   H1        1.0  0.47902  0.40024  0.48736  1.0000
  H   H2        1.0  0.46801  0.42747  0.31717  1.0000
  H   H3        1.0  0.47492  0.60495  0.30009  1.0000
  H   H4        1.0  0.49721  0.64275  0.58493  1.0000
  O   O1        1.0  0.48429  0.60553  0.42992  1.0000
  O   O2        1.0  0.49532  0.52196  0.63851  1.0000
