data_image0
_chemical_formula_structural       Rh64O42C5H84
_chemical_formula_sum              "Rh64 O42 C5 H84"
_cell_length_a       10.7339
_cell_length_b       9.29581
_cell_length_c       46.5731
_cell_angle_alpha    90
_cell_angle_beta     90
_cell_angle_gamma    90

_space_group_name_H-M_alt    "P 1"
_space_group_IT_number       1

loop_
  _space_group_symop_operation_xyz
  'x, y, z'

loop_
  _atom_site_type_symbol
  _atom_site_label
  _atom_site_symmetry_multiplicity
  _atom_site_fract_x
  _atom_site_fract_y
  _atom_site_fract_z
  _atom_site_occupancy
  Rh  Rh1       1.0  0.00000  0.00000  0.42943  1.0000
  Rh  Rh2       1.0  0.25000  0.00000  0.42943  1.0000
  Rh  Rh3       1.0  0.50000  0.00000  0.42943  1.0000
  Rh  Rh4       1.0  0.75000  0.00000  0.42943  1.0000
  Rh  Rh5       1.0  0.12500  0.25000  0.42943  1.0000
  Rh  Rh6       1.0  0.37500  0.25000  0.42943  1.0000
  Rh  Rh7       1.0  0.62500  0.25000  0.42943  1.0000
  Rh  Rh8       1.0  0.87500  0.25000  0.42943  1.0000
  Rh  Rh9       1.0  0.00000  0.50000  0.42943  1.0000
  Rh  Rh10      1.0  0.25000  0.50000  0.42943  1.0000
  Rh  Rh11      1.0  0.50000  0.50000  0.42943  1.0000
  Rh  Rh12      1.0  0.75000  0.50000  0.42943  1.0000
  Rh  Rh13      1.0  0.12500  0.75000  0.42943  1.0000
  Rh  Rh14      1.0  0.37500  0.75000  0.42943  1.0000
  Rh  Rh15      1.0  0.62500  0.75000  0.42943  1.0000
  Rh  Rh16      1.0  0.87500  0.75000  0.42943  1.0000
  Rh  Rh17      1.0  0.12500  0.08333  0.47648  1.0000
  Rh  Rh18      1.0  0.37500  0.08333  0.47648  1.0000
  Rh  Rh19      1.0  0.62500  0.08333  0.47648  1.0000
  Rh  Rh20      1.0  0.87500  0.08333  0.47648  1.0000
  Rh  Rh21      1.0  0.00000  0.33333  0.47648  1.0000
  Rh  Rh22      1.0  0.25000  0.33333  0.47648  1.0000
  Rh  Rh23      1.0  0.50000  0.33333  0.47648  1.0000
  Rh  Rh24      1.0  0.75000  0.33333  0.47648  1.0000
  Rh  Rh25      1.0  0.12500  0.58333  0.47648  1.0000
  Rh  Rh26      1.0  0.37500  0.58333  0.47648  1.0000
  Rh  Rh27      1.0  0.62500  0.58333  0.47648  1.0000
  Rh  Rh28      1.0  0.87500  0.58333  0.47648  1.0000
  Rh  Rh29      1.0  0.00000  0.83333  0.47648  1.0000
  Rh  Rh30      1.0  0.25000  0.83333  0.47648  1.0000
  Rh  Rh31      1.0  0.50000  0.83333  0.47648  1.0000
  Rh  Rh32      1.0  0.75000  0.83333  0.47648  1.0000
  Rh  Rh33      1.0  0.00180  0.17071  0.52322  1.0000
  Rh  Rh34      1.0  0.25249  0.17547  0.52392  1.0000
  Rh  Rh35      1.0  0.50484  0.17347  0.52356  1.0000
  Rh  Rh36      1.0  0.75070  0.16679  0.52287  1.0000
  Rh  Rh37      1.0  0.12388  0.41691  0.52344  1.0000
  Rh  Rh38      1.0  0.37393  0.42430  0.52592  1.0000
  Rh  Rh39      1.0  0.62653  0.42053  0.52202  1.0000
  Rh  Rh40      1.0  0.87007  0.41546  0.52393  1.0000
  Rh  Rh41      1.0  0.99871  0.66349  0.52256  1.0000
  Rh  Rh42      1.0  0.24591  0.66869  0.52180  1.0000
  Rh  Rh43      1.0  0.49813  0.66845  0.52304  1.0000
  Rh  Rh44      1.0  0.74873  0.66968  0.52307  1.0000
  Rh  Rh45      1.0  0.12771  0.91940  0.52534  1.0000
  Rh  Rh46      1.0  0.37283  0.92196  0.52430  1.0000
  Rh  Rh47      1.0  0.63201  0.91357  0.52369  1.0000
  Rh  Rh48      1.0  0.87927  0.91823  0.52327  1.0000
  Rh  Rh49      1.0  0.99904  0.00716  0.57212  1.0000
  Rh  Rh50      1.0  0.24996  0.00212  0.56971  1.0000
  Rh  Rh51      1.0  0.50598  0.00736  0.56926  1.0000
  Rh  Rh52      1.0  0.75233  0.01133  0.57057  1.0000
  Rh  Rh53      1.0  0.12059  0.24463  0.56842  1.0000
  Rh  Rh54      1.0  0.36331  0.26469  0.57725  1.0000
  Rh  Rh55      1.0  0.61929  0.25556  0.56741  1.0000
  Rh  Rh56      1.0  0.87703  0.25274  0.57044  1.0000
  Rh  Rh57      1.0  0.99594  0.51281  0.57186  1.0000
  Rh  Rh58      1.0  0.23608  0.50934  0.57495  1.0000
  Rh  Rh59      1.0  0.50502  0.50933  0.57219  1.0000
  Rh  Rh60      1.0  0.75404  0.49368  0.57240  1.0000
  Rh  Rh61      1.0  0.11926  0.76413  0.57096  1.0000
  Rh  Rh62      1.0  0.36761  0.75751  0.56964  1.0000
  Rh  Rh63      1.0  0.62138  0.75975  0.57172  1.0000
  Rh  Rh64      1.0  0.86465  0.76347  0.56998  1.0000
  O   O1        1.0  0.37003  0.56053  0.62495  1.0000
  O   O2        1.0  0.70704  0.47527  0.61620  1.0000
  O   O3        1.0  0.45753  0.94850  0.63708  1.0000
  O   O4        1.0  0.51025  0.73700  0.68760  1.0000
  O   O5        1.0  0.72394  0.94335  0.63441  1.0000
  O   O6        1.0  0.25058  0.18451  0.68188  1.0000
  O   O7        1.0  0.61931  0.72169  0.81068  1.0000
  O   O8        1.0  0.80070  0.52464  0.79649  1.0000
  O   O9        1.0  0.48014  0.11947  0.72914  1.0000
  O   O10       1.0  0.25108  0.97117  0.73380  1.0000
  O   O11       1.0  0.63155  0.23887  0.68357  1.0000
  O   O12       1.0  0.64646  0.90584  0.73499  1.0000
  O   O13       1.0  0.44463  0.21547  0.92200  1.0000
  O   O14       1.0  0.84693  0.24071  0.64813  1.0000
  O   O15       1.0  0.72748  0.65644  0.88663  1.0000
  O   O16       1.0  0.94891  0.07948  0.71886  1.0000
  O   O17       1.0  0.91795  0.36090  0.70251  1.0000
  O   O18       1.0  0.08471  0.58580  0.82138  1.0000
  O   O19       1.0  0.00219  0.87382  0.77008  1.0000
  O   O20       1.0  0.54101  0.34928  0.76419  1.0000
  O   O21       1.0  0.20511  0.00958  0.80901  1.0000
  O   O22       1.0  0.83298  0.85651  0.68746  1.0000
  O   O23       1.0  0.92179  0.81439  0.84845  1.0000
  O   O24       1.0  0.82224  0.18705  0.88076  1.0000
  O   O25       1.0  0.15618  0.46583  0.70050  1.0000
  O   O26       1.0  0.79170  0.97913  0.80832  1.0000
  O   O27       1.0  0.66543  0.28858  0.81012  1.0000
  O   O28       1.0  0.56030  0.42130  0.86766  1.0000
  O   O29       1.0  0.14715  0.25295  0.77147  1.0000
  O   O30       1.0  0.97445  0.31411  0.82829  1.0000
  O   O31       1.0  0.30561  0.49186  0.85719  1.0000
  O   O32       1.0  0.07967  0.02660  0.87248  1.0000
  O   O33       1.0  0.64669  0.93517  0.90057  1.0000
  O   O34       1.0  0.29711  0.67300  0.72814  1.0000
  O   O35       1.0  0.66872  0.51172  0.70615  1.0000
  O   O36       1.0  0.33750  0.42997  0.79562  1.0000
  O   O37       1.0  0.92935  0.63309  0.64984  1.0000
  O   O38       1.0  0.19096  0.26942  0.89166  1.0000
  O   O39       1.0  0.11861  0.78560  0.62039  1.0000
  O   O40       1.0  0.07267  0.08130  0.63755  1.0000
  O   O41       1.0  0.43055  0.80543  0.77939  1.0000
  O   O42       1.0  0.02765  0.59224  0.75668  1.0000
  C   C1        1.0  0.47394  0.48343  0.61880  1.0000
  C   C2        1.0  0.44063  0.32691  0.61906  1.0000
  C   C3        1.0  0.30677  0.32218  0.61999  1.0000
  C   C4        1.0  0.26360  0.47510  0.61760  1.0000
  C   C5        1.0  0.59941  0.54613  0.61541  1.0000
  H   H1        1.0  0.49602  0.24031  0.62830  1.0000
  H   H2        1.0  0.25670  0.24800  0.63345  1.0000
  H   H3        1.0  0.17456  0.50203  0.63048  1.0000
  H   H4        1.0  0.60594  0.65726  0.62217  1.0000
  H   H5        1.0  0.48161  0.86005  0.64666  1.0000
  H   H6        1.0  0.40977  0.91127  0.62085  1.0000
  H   H7        1.0  0.58369  0.67887  0.69347  1.0000
  H   H8        1.0  0.52992  0.82887  0.69729  1.0000
  H   H9        1.0  0.64164  0.99441  0.63253  1.0000
  H   H10       1.0  0.78290  0.01963  0.62957  1.0000
  H   H11       1.0  0.33967  0.19009  0.67868  1.0000
  H   H12       1.0  0.23552  0.10808  0.69716  1.0000
  H   H13       1.0  0.53629  0.73085  0.80103  1.0000
  H   H14       1.0  0.60671  0.70969  0.83182  1.0000
  H   H15       1.0  0.73617  0.60330  0.80117  1.0000
  H   H16       1.0  0.87231  0.53659  0.80890  1.0000
  H   H17       1.0  0.39143  0.10304  0.73256  1.0000
  H   H18       1.0  0.49994  0.20524  0.74200  1.0000
  H   H19       1.0  0.23597  0.86648  0.72787  1.0000
  H   H20       1.0  0.17739  0.99221  0.74528  1.0000
  H   H21       1.0  0.60796  0.17525  0.69970  1.0000
  H   H22       1.0  0.70167  0.20589  0.67335  1.0000
  H   H23       1.0  0.61261  0.84195  0.75061  1.0000
  H   H24       1.0  0.59029  0.98439  0.73731  1.0000
  H   H25       1.0  0.45025  0.23787  0.94204  1.0000
  H   H26       1.0  0.48542  0.29010  0.91097  1.0000
  H   H27       1.0  0.81271  0.31776  0.63436  1.0000
  H   H28       1.0  0.93498  0.21787  0.64337  1.0000
  H   H29       1.0  0.67605  0.56610  0.88463  1.0000
  H   H30       1.0  0.67275  0.74006  0.88877  1.0000
  H   H31       1.0  0.96381  0.02135  0.73699  1.0000
  H   H32       1.0  0.90536  0.00968  0.70734  1.0000
  H   H33       1.0  0.91206  0.26477  0.71247  1.0000
  H   H34       1.0  0.89973  0.33000  0.68259  1.0000
  H   H35       1.0  0.08987  0.60118  0.80019  1.0000
  H   H36       1.0  0.05952  0.48416  0.82331  1.0000
  H   H37       1.0  0.93447  0.92102  0.78016  1.0000
  H   H38       1.0  0.98377  0.77504  0.76474  1.0000
  H   H39       1.0  0.58411  0.43593  0.75594  1.0000
  H   H40       1.0  0.58670  0.32291  0.78201  1.0000
  H   H41       1.0  0.20241  0.09836  0.79663  1.0000
  H   H42       1.0  0.14350  0.94170  0.80010  1.0000
  H   H43       1.0  0.77561  0.84657  0.70323  1.0000
  H   H44       1.0  0.78727  0.91252  0.67300  1.0000
  H   H45       1.0  0.96204  0.73664  0.83677  1.0000
  H   H46       1.0  0.85947  0.76309  0.86282  1.0000
  H   H47       1.0  0.90117  0.13761  0.88305  1.0000
  H   H48       1.0  0.82371  0.26980  0.89299  1.0000
  H   H49       1.0  0.06973  0.43393  0.70159  1.0000
  H   H50       1.0  0.19601  0.38106  0.69046  1.0000
  H   H51       1.0  0.71967  0.92114  0.80545  1.0000
  H   H52       1.0  0.83890  0.94244  0.82464  1.0000
  H   H53       1.0  0.73584  0.36819  0.81199  1.0000
  H   H54       1.0  0.69834  0.19702  0.81459  1.0000
  H   H55       1.0  0.59002  0.36802  0.84997  1.0000
  H   H56       1.0  0.47382  0.45639  0.86416  1.0000
  H   H57       1.0  0.20834  0.30214  0.78451  1.0000
  H   H58       1.0  0.13800  0.31246  0.75448  1.0000
  H   H59       1.0  0.99256  0.27633  0.80933  1.0000
  H   H60       1.0  0.97111  0.23048  0.84081  1.0000
  H   H61       1.0  0.23814  0.53964  0.84581  1.0000
  H   H62       1.0  0.25933  0.42377  0.86977  1.0000
  H   H63       1.0  0.13438  0.02455  0.85584  1.0000
  H   H64       1.0  0.04946  0.92840  0.87397  1.0000
  H   H65       1.0  0.56902  0.98669  0.90683  1.0000
  H   H66       1.0  0.69453  0.02396  0.89657  1.0000
  H   H67       1.0  0.35958  0.68161  0.71289  1.0000
  H   H68       1.0  0.24956  0.59405  0.72015  1.0000
  H   H69       1.0  0.75605  0.48267  0.70903  1.0000
  H   H70       1.0  0.63379  0.42042  0.69862  1.0000
  H   H71       1.0  0.41442  0.40456  0.78825  1.0000
  H   H72       1.0  0.34346  0.43551  0.81716  1.0000
  H   H73       1.0  0.86615  0.60073  0.63503  1.0000
  H   H74       1.0  0.87801  0.68826  0.66258  1.0000
  H   H75       1.0  0.16080  0.17480  0.88405  1.0000
  H   H76       1.0  0.27129  0.25073  0.90132  1.0000
  H   H77       1.0  0.03941  0.74905  0.62828  1.0000
  H   H78       1.0  0.11979  0.88468  0.62827  1.0000
  H   H79       1.0  0.12558  0.10078  0.65468  1.0000
  H   H80       1.0  0.10921  0.13191  0.62038  1.0000
  H   H81       1.0  0.37195  0.86167  0.78964  1.0000
  H   H82       1.0  0.38275  0.73926  0.76767  1.0000
  H   H83       1.0  0.95467  0.53091  0.75148  1.0000
  H   H84       1.0  0.06823  0.60439  0.73732  1.0000
